Paracetamol
  -OEChem-01152217473D

 20 20  0     0  0  0  0  0  0999 V2000
    1.8851   -1.0363   -0.1124 C   0  0  0  0  0  0  0  0  0  0  0  0
    2.8783   -1.6520    2.0022 C   0  0  0  0  0  0  0  0  0  0  0  0
    0.8066   -0.4630    0.5610 C   0  0  0  0  0  0  0  0  0  0  0  0
    1.7997   -1.0786    2.6757 C   0  0  0  0  0  0  0  0  0  0  0  0
    2.9210   -1.6309    0.6081 C   0  0  0  0  0  0  0  0  0  0  0  0
    0.7638   -0.4841    1.9551 C   0  0  0  0  0  0  0  0  0  0  0  0
    4.2159   -2.2792   -1.4479 C   0  0  0  0  0  0  0  0  0  0  0  0
    5.5095   -2.9823   -1.7745 C   0  0  0  0  0  0  0  0  0  0  0  0
    3.9999   -2.2044   -0.0654 N   0  0  0  0  0  0  0  0  0  0  0  0
    3.4928   -1.8480   -2.3401 O   0  0  0  0  0  0  0  0  0  0  0  0
   -0.2886    0.0753    2.6123 O   0  0  0  0  0  0  0  0  0  0  0  0
    1.9081   -1.0140   -1.1991 H   0  0  0  0  0  0  0  0  0  0  0  0
    3.6798   -2.1126    2.5741 H   0  0  0  0  0  0  0  0  0  0  0  0
    0.0027   -0.0013   -0.0058 H   0  0  0  0  0  0  0  0  0  0  0  0
    1.7720   -1.0983    3.7618 H   0  0  0  0  0  0  0  0  0  0  0  0
    5.3302   -4.0556   -1.8836 H   0  0  0  0  0  0  0  0  0  0  0  0
    6.2309   -2.8237   -0.9678 H   0  0  0  0  0  0  0  0  0  0  0  0
    5.9263   -2.5842   -2.7043 H   0  0  0  0  0  0  0  0  0  0  0  0
    4.7308   -2.6254    0.5198 H   0  0  0  0  0  0  0  0  0  0  0  0
   -0.9230    0.4455    1.9779 H   0  0  0  0  0  0  0  0  0  0  0  0
  1  3  2  0  0  0  0
  1  5  1  0  0  0  0
  2  4  1  0  0  0  0
  2  5  2  0  0  0  0
  3  6  1  0  0  0  0
  4  6  2  0  0  0  0
  5  9  1  0  0  0  0
  6 11  1  0  0  0  0
  7  8  1  0  0  0  0
  7  9  1  0  0  0  0
  7 10  2  0  0  0  0
  1 12  1  0  0  0  0
  2 13  1  0  0  0  0
  3 14  1  0  0  0  0
  4 15  1  0  0  0  0
  8 16  1  0  0  0  0
  8 17  1  0  0  0  0
  8 18  1  0  0  0  0
  9 19  1  0  0  0  0
 11 20  1  0  0  0  0
M  END
$$$$
